Version,9.6;

Timestep, 20;

GlobalGeometryRules,
    UpperLeftCorner,         !- Starting Vertex Position
    CounterClockWise,        !- Vertex Entry Direction
    World,                   !- Coordinate System
    ,                        !- Daylighting Reference Point Coordinate System
    World;                   !- Rectangular Surface Coordinate System


Building,
    BUILDING #1,             !- Name
    0.0000000E+00,           !- North Axis {deg}
    Suburbs,                 !- Terrain
    3.9999999E-02,           !- Loads Convergence Tolerance Value {W}
    0.2500000,               !- Temperature Convergence Tolerance Value {deltaC}
    MinimalShadowing, !- Solar Distribution
    25,                      !- Maximum Number of Warmup Days
    6;                       !- Minimum Number of Warmup Days

RunPeriod,
    Run Period 1,            !- Name
    1,                       !- Begin Month
    1,                       !- Begin Day of Month
    ,                        !- Begin Year
    1,                       !- End Month
    21,                      !- End Day of Month
    ,                        !- End Year
    ,                        !- Day of Week for Start Day
    Yes,                     !- Use Weather File Holidays and Special Days
    Yes,                     !- Use Weather File Daylight Saving Period
    Yes,                     !- Apply Weekend Holiday Rule
    No,                      !- Use Weather File Rain Indicators
    No;                      !- Use Weather File Snow Indicators





!- Materials

Material,
    Concrete,          !- Name
    Rough,                   !- Roughness
    0.2,                     !- Thickness {m}
    0.816,                     !- Conductivity {W/m-K}
    1700,                    !- Density {kg/m3}
    800,                     !- Specific Heat {J/kg-K}
    0.000000001,                     !- Thermal Absorptance
    0.0,                     !- Solar Absorptance
    0.0;                     !- Visible Absorptance



!- CONSTRUCTIONS

Construction,
    Construction 0,           !- Name
    Concrete;          !- Outside Layer ... 0.1m    
    

!- GEOMETRY


 !- First layer ... 
BuildingSurface:Detailed,
    Wall Exterior,           !- Name
    Wall,                    !- Surface Type
    Construction 0,                !- Construction Name
    Interior Space,                  !- Zone Name
    ,
    Outdoors,                !- Outside Boundary Condition
    ,                        !- Outside Boundary Condition Object
    SunExposed,              !- Sun Exposure
    WindExposed,             !- Wind Exposure
    0.5000000,               !- View Factor to Ground
    4,                       !- Number of Vertices
    10.00000,14.90000,3.000000,  !- X,Y,Z ==> Vertex 1 {m}
    10.00000,14.90000,0.0000000E+00,  !- X,Y,Z ==> Vertex 2 {m}
    30.00000,14.90000,0.0000000E+00,  !- X,Y,Z ==> Vertex 3 {m}
    30.00000,14.90000,3.000000;  !- X,Y,Z ==> Vertex 4 {m}

SurfaceProperty:ConvectionCoefficients,
    Wall Exterior,      ! Surface Name
    Outside,            ! Convection Coefficient 1 Location
    Value,              ! Convection Coefficient 1 Type 
    10,                 ! Convection Coefficient 1
    ,                   ! Convection Coefficient 1 Schedule Name
    ,                   ! Convection Coefficient 1 User Curve Name
    Inside,             ! Convection Coefficient 2 Location
    Value,           ! Convection Coefficient 2 Type
    10,                 ! Convection Coefficient 2 
    ,                   ! Convection Coefficient 2 Schedule Name
    ;                   ! Convection Coefficient 2 User Curve Name

  Zone,
    Interior Space,                  !- Name
    0.0000000E+00,           !- Direction of Relative North {deg}
    10.00000,                !- X Origin {m}
    14.90000,                !- Y Origin {m}
    0.0000000E+00,           !- Z Origin {m}
    1,                       !- Type
    1,                       !- Multiplier
    3,           !- Ceiling Height {m}
    600,           !- Volume {m3}
    200,           !- Floor Area {m2}
    ;              !- Zone Inside Convection Algorithm





!- INFILTRATION IN THE CAVITY
Schedule:Constant,
    AlwaysOn, !- Name
    Any number, !- Schedule Type Limits Name
    1.0; !- Hourly Value

ZoneInfiltration:DesignFlowRate,
    Infiltrate_Cavity_0,       !- Name
    Interior Space,                  !- Zone or ZoneList Name
    AlwaysOn,                      !- Schedule Name
    AirChanges/Hour,         !- Design Flow Rate Calculation Method
    0,                       !- Design Flow Rate {m3/s}
    0,                       !- Flow per Zone Floor Area {m3/s-m2}
    0,                       !- Flow per Exterior Surface Area {m3/s-m2}
    0,                       !- Air Changes per Hour {1/hr}
    1,                       !- Constant Term Coefficient
    0,                       !- Temperature Term Coefficient
    0,                       !- Velocity Term Coefficient
    0;                       !- Velocity Squared Term Coefficient





Output:VariableDictionary, IDF;
Output:Variable,*,Surface Outside Face Outdoor Air Drybulb Temperature,timestep; !- Zone Average [C]
Output:Variable,*,Zone Mean Air Temperature,timestep; !- Zone Average [C]
Output:Variable,*,Surface Outside Face Net Thermal Radiation Heat Gain Rate,timestep; !- Zone Average [W]
Output:Variable,*,Surface Inside Face Net Surface Thermal Radiation Heat Gain Rate,timestep; !- Zone Average [W]
Output:Variable,*,Surface Outside Face Solar Radiation Heat Gain Rate per Area,timestep; !- Zone Average [W/m2]

Output:Variable,*,Surface Outside Face Incident Solar Radiation Rate per Area,timestep; !- Zone Average [W/m2]
Output:Variable,*,Surface Outside Face Incident Beam Solar Radiation Rate per Area,timestep; !- Zone Average [W/m2]
Output:Variable,*,Surface Outside Face Incident Sky Diffuse Solar Radiation Rate per Area,timestep; !- Zone Average [W/m2]
Output:Variable,*,Surface Outside Face Incident Beam To Diffuse Ground Reflected Solar Radiation Rate per Area,timestep; !- Zone Average [W/m2]
Output:Variable,*,Surface Outside Face Incident Sky Diffuse Ground Reflected Solar Radiation Rate per Area,timestep; !- Zone Average [W/m2]

Output:Variable,*,Site Diffuse Solar Radiation Rate per Area,timestep; !- Zone Average [W/m2]
Output:Variable,*,Site Direct Solar Radiation Rate per Area,timestep; !- Zone Average [W/m2]
Output:Variable,*,Surface Outside Face Beam Solar Incident Angle Cosine Value,timestep; !- Zone Average []
